** MATERIAL DATASET: Mix_ID=R20S, Data_Type=Validation
*MATERIAL, NAME=R20S_Validation
*DENSITY, DEPENDENCIES=1
1956.506, 20.000
1953.696, 40.000
1945.932, 60.000
1927.583, 80.000
1896.702, 100.000
1865.802, 120.000
1847.388, 140.000
1839.505, 160.000
1836.502, 180.000
1835.237, 200.000
1834.445, 220.000
1833.620, 240.000
1832.494, 260.000
1830.839, 280.000
1828.408, 300.000
1824.939, 320.000
1820.246, 340.000
1814.351, 360.000
1807.605, 380.000
1800.615, 400.000
** ... 20 like lines cut
*SPECIFIC HEAT, DEPENDENCIES=1
891.280, 20.000
911.063, 40.000
1063.002, 60.000
1603.892, 80.000
2000.000, 100.000
1966.345, 120.000
1289.690, 140.000
973.921, 160.000
922.536, 180.000
922.143, 200.000
925.526, 220.000
929.026, 240.000
932.527, 260.000
936.029, 280.000
939.530, 300.000
943.031, 320.000
946.533, 340.000
950.034, 360.000
953.535, 380.000
957.037, 400.000
** ... 20 like lines cut
*CONDUCTIVITY, TYPE=ISOTROPIC, DEPENDENCIES=1
1.318012, 20.000
1.305720, 40.000
1.287428, 60.000
1.256957, 80.000
1.212250, 100.000
1.166379, 120.000
1.133062, 140.000
1.111895, 160.000
1.097679, 180.000
1.086696, 200.000
1.076968, 220.000
1.067515, 240.000
1.057815, 260.000
1.047518, 280.000
1.036329, 300.000
1.023983, 320.000
1.010301, 340.000
0.995307, 360.000
0.979301, 380.000
0.962803, 400.000
** ... 20 like lines cut
*EXPANSION, ZERO=20.
8.205616987e-06, 20.000
8.217349949e-06, 40.000
8.231145693e-06, 60.000
8.247353263e-06, 80.000
8.266375535e-06, 100.000
8.288675495e-06, 120.000
8.314782470e-06, 140.000
8.345297880e-06, 160.000
8.380899987e-06, 180.000
8.422346862e-06, 200.000
8.470476576e-06, 220.000
8.526203355e-06, 240.000
8.590508174e-06, 260.000
8.664422057e-06, 280.000
8.749000249e-06, 300.000
8.845285557e-06, 320.000
8.954259589e-06, 340.000
9.076781553e-06, 360.000
9.213515724e-06, 380.000
9.364850764e-06, 400.000
** ... 20 like lines cut
*ELASTIC, TYPE=ISOTROPIC, DEPENDENCIES=1
20609972701.438, 0.20459, 20.000
20500041862.566, 0.20481, 40.000
20242388434.399, 0.20525, 60.000
19689618493.710, 0.20609, 80.000
18783501506.959, 0.20751, 100.000
17791885976.998, 0.20941, 120.000
16981201888.447, 0.21131, 140.000
16349784043.534, 0.21273, 160.000
15858952495.803, 0.21357, 180.000
15498195617.622, 0.21401, 200.000
15242215212.671, 0.21421, 220.000
15050989989.464, 0.21431, 240.000
14886565116.601, 0.21434, 260.000
14719759316.241, 0.21435, 280.000
14529090079.705, 0.21434, 300.000
14298483980.574, 0.21432, 320.000
14016712510.245, 0.21430, 340.000
13678694775.744, 0.21426, 360.000
13286745616.946, 0.21421, 380.000
12849097653.131, 0.21414, 400.000
** ... 20 like lines cut
