*HEADING
Concrete Fire Testing - Pillar 3 Numerical Modeling

*PART, NAME=CONCRETE_SPECIMEN
*NODE
1, 0.000, 0.000, -100.000
2, 2.500, 0.000, -100.000
3, 5.000, 0.000, -100.000
4, 7.500, 0.000, -100.000
5, 10.000, 0.000, -100.000
6, 12.500, 0.000, -100.000
7, 15.000, 0.000, -100.000
8, 17.500, 0.000, -100.000
9, 20.000, 0.000, -100.000
10, 22.500, 0.000, -100.000
11, 25.000, 0.000, -100.000
12, 27.500, 0.000, -100.000
13, 30.000, 0.000, -100.000
14, 32.500, 0.000, -100.000
15, 35.000, 0.000, -100.000
16, 37.500, 0.000, -100.000
17, 40.000, 0.000, -100.000
18, 42.500, 0.000, -100.000
19, 45.000, 0.000, -100.000
20, 47.500, 0.000, -100.000
** ... 21505 like lines cut
*ELEMENT, TYPE=C3D8R
1, 1, 2, 23, 22, 526, 527, 548, 547
2, 2, 3, 24, 23, 527, 528, 549, 548
3, 3, 4, 25, 24, 528, 529, 550, 549
4, 4, 5, 26, 25, 529, 530, 551, 550
5, 5, 6, 27, 26, 530, 531, 552, 551
6, 6, 7, 28, 27, 531, 532, 553, 552
7, 7, 8, 29, 28, 532, 533, 554, 553
8, 8, 9, 30, 29, 533, 534, 555, 554
9, 9, 10, 31, 30, 534, 535, 556, 555
10, 10, 11, 32, 31, 535, 536, 557, 556
11, 11, 12, 33, 32, 536, 537, 558, 557
12, 12, 13, 34, 33, 537, 538, 559, 558
13, 13, 14, 35, 34, 538, 539, 560, 559
14, 14, 15, 36, 35, 539, 540, 561, 560
15, 15, 16, 37, 36, 540, 541, 562, 561
16, 16, 17, 38, 37, 541, 542, 563, 562
17, 17, 18, 39, 38, 542, 543, 564, 563
18, 18, 19, 40, 39, 543, 544, 565, 564
19, 19, 20, 41, 40, 544, 545, 566, 565
20, 20, 21, 42, 41, 545, 546, 567, 566
** ... 19180 like lines cut
*ELSET, ELSET=ALL_ELEMENTS
1-19200

*NSET, NSET=TOP_SURFACE
21001
21002
21003
21004
21005
21006
21007
21008
21009
21010
21011
21012
21013
21014
21015
21016
21017
21018
21019
21020
** ... 505 like lines cut

*NSET, NSET=BOTTOM_SURFACE
1
2
3
4
5
6
7
8
9
10
11
12
13
14
15
16
17
18
19
20
** ... 505 like lines cut

*NSET, NSET=SIDE_SURFACE
21
42
63
84
105
126
147
168
189
210
231
252
273
294
315
336
357
378
399
420
** ... 1005 like lines cut

*MATERIAL, NAME=CONCRETE
*DENSITY
2400
*CONDUCTIVITY
1.8
*SPECIFIC HEAT
1000
*EXPANSION
10e-6
*ELASTIC
30000, 0.2
*PLASTIC
40.0, 0.0
*CONCRETE DAMAGED PLASTICITY
36.0, 0.1, 1.16, 0.667
*DAMAGE EVOLUTION, TYPE=ENERGY
0.0, 0.0
*DECHYDRATION
0.05, 105, 45000, 1e6
*PORE PRESSURE
101325, 8.07131, 1730.63, 233.426
*END PART

*ASSEMBLY, NAME=ASSEMBLY
*INSTANCE, NAME=CONCRETE_SPECIMEN-1, PART=CONCRETE_SPECIMEN
*END INSTANCE
*END ASSEMBLY

*STEP, NAME=HEAT_TRANSFER
*HEAT TRANSFER
0.01, 7200
*BOUNDARY
BOTTOM_SURFACE, 1, 3, 0
*SFILM
TOP_SURFACE, F, 25, 0.7, 0.5
SIDE_SURFACE, F, 25, 0.7, 0.5
*TEMPERATURE
TOP_SURFACE, 20
SIDE_SURFACE, 20
*END STEP

*STEP, NAME=MECHANICAL
*STATIC
0.01, 7200
*BOUNDARY
BOTTOM_SURFACE, 1, 3, 0
*DLOAD
ALL_ELEMENTS, GRAV, 9.81, 0, 0, -1
*END STEP