** YSZ Material Properties for Abaqus
** Generated from temperature-dependent dataset
** Material: 8 mol% Yttria-Stabilized Zirconia
**
*Material, name=YSZ_8mol_percent
*Elastic, type=ISOTROPIC
2.100e+11, 0.3000, 298.1
2.085e+11, 0.3010, 323.1
2.070e+11, 0.3020, 348.1
2.055e+11, 0.3030, 373.1
2.020e+11, 0.3050, 423.1
1.985e+11, 0.3070, 473.1
1.950e+11, 0.3090, 523.1
1.915e+11, 0.3110, 573.1
1.880e+11, 0.3130, 623.1
1.845e+11, 0.3150, 673.1
1.810e+11, 0.3170, 723.1
1.775e+11, 0.3190, 773.1
1.740e+11, 0.3210, 823.1
1.705e+11, 0.3230, 873.1
1.670e+11, 0.3250, 923.1
1.635e+11, 0.3270, 973.1
1.600e+11, 0.3290, 1023.1
1.565e+11, 0.3310, 1073.2
1.530e+11, 0.3330, 1123.2
1.495e+11, 0.3350, 1173.2
** ... 12 like lines cut
*Density
6050.0, 298.1
6048.0, 323.1
6046.0, 348.1
6044.0, 373.1
6040.0, 423.1
6036.0, 473.1
6032.0, 523.1
6028.0, 573.1
6024.0, 623.1
6020.0, 673.1
6016.0, 723.1
6012.0, 773.1
6008.0, 823.1
6004.0, 873.1
6000.0, 923.1
5996.0, 973.1
5992.0, 1023.1
5988.0, 1073.2
5984.0, 1123.2
5980.0, 1173.2
** ... 12 like lines cut
*Expansion, type=ISOTROPIC
1.050000e-05, 298.1
1.060000e-05, 323.1
1.070000e-05, 348.1
1.080000e-05, 373.1
1.100000e-05, 423.1
1.120000e-05, 473.1
1.140000e-05, 523.1
1.160000e-05, 573.1
1.180000e-05, 623.1
1.200000e-05, 673.1
1.220000e-05, 723.1
1.240000e-05, 773.1
1.260000e-05, 823.1
1.280000e-05, 873.1
1.300000e-05, 923.1
1.320000e-05, 973.1
1.340000e-05, 1023.1
1.360000e-05, 1073.2
1.380000e-05, 1123.2
1.400000e-05, 1173.2
** ... 12 like lines cut
*Conductivity
2.8000, 298.1
2.7500, 323.1
2.7000, 348.1
2.6500, 373.1
2.5500, 423.1
2.4500, 473.1
2.3500, 523.1
2.2500, 573.1
2.1500, 623.1
2.0500, 673.1
1.9500, 723.1
1.8500, 773.1
1.7500, 823.1
1.6500, 873.1
1.5500, 923.1
1.4500, 973.1
1.3500, 1023.1
1.2500, 1073.2
1.1500, 1123.2
1.0500, 1173.2
** ... 12 like lines cut
*Specific Heat
500, 298.1
500, 323.1
500, 348.1
500, 373.1
500, 423.1
500, 473.1
500, 523.1
500, 573.1
500, 623.1
500, 673.1
500, 723.1
500, 773.1
500, 823.1
500, 873.1
500, 923.1
500, 973.1
500, 1023.1
500, 1073.2
500, 1123.2
500, 1173.2
** ... 12 like lines cut
*Creep, law=POWER
1.200000e-15, 1.0, 0.0, 298.1
1.800000e-15, 1.0, 0.0, 323.1
2.700000e-15, 1.0, 0.0, 348.1
4.000000e-15, 1.0, 0.0, 373.1
8.500000e-15, 1.0, 0.0, 423.1
1.800000e-14, 1.0, 0.0, 473.1
3.800000e-14, 1.0, 0.0, 523.1
7.900000e-14, 1.0, 0.0, 573.1
1.600000e-13, 1.0, 0.0, 623.1
3.200000e-13, 1.0, 0.0, 673.1
6.400000e-13, 1.0, 0.0, 723.1
1.300000e-12, 1.0, 0.0, 773.1
2.500000e-12, 1.0, 0.0, 823.1
4.900000e-12, 1.0, 0.0, 873.1
9.600000e-12, 1.0, 0.0, 923.1
1.900000e-11, 1.0, 0.0, 973.1
3.700000e-11, 1.0, 0.0, 1023.1
7.200000e-11, 1.0, 0.0, 1073.2
1.400000e-10, 1.0, 0.0, 1123.2
2.700000e-10, 1.0, 0.0, 1173.2
** ... 12 like lines cut
