** MATERIAL DATASET: Mix_ID=C, Data_Type=Calibration
*MATERIAL, NAME=C_Calibration
*DENSITY, DEPENDENCIES=1
2397.674, 20.000
2394.367, 40.000
2385.225, 60.000
2363.614, 80.000
2327.246, 100.000
2290.866, 120.000
2269.220, 140.000
2260.017, 160.000
2256.618, 180.000
2255.360, 200.000
2254.808, 220.000
2254.454, 240.000
2254.118, 260.000
2253.729, 280.000
2253.245, 300.000
2252.636, 320.000
2251.866, 340.000
2250.897, 360.000
2249.681, 380.000
2248.168, 400.000
** ... 20 like lines cut
*SPECIFIC HEAT, DEPENDENCIES=1
862.496, 20.000
882.147, 40.000
1033.800, 60.000
1573.951, 80.000
2000.000, 100.000
1939.897, 120.000
1259.788, 140.000
944.277, 160.000
892.843, 180.000
892.341, 200.000
895.611, 220.000
898.998, 240.000
902.386, 260.000
905.774, 280.000
909.162, 300.000
912.551, 320.000
915.939, 340.000
919.327, 360.000
922.715, 380.000
926.103, 400.000
** ... 20 like lines cut
*CONDUCTIVITY, TYPE=ISOTROPIC, DEPENDENCIES=1
1.881740, 20.000
1.864371, 40.000
1.838715, 60.000
1.796242, 80.000
1.734085, 100.000
1.670219, 120.000
1.623625, 140.000
1.593884, 160.000
1.573897, 180.000
1.558548, 200.000
1.545136, 220.000
1.532376, 240.000
1.519667, 260.000
1.506709, 280.000
1.493330, 300.000
1.479410, 320.000
1.464852, 340.000
1.449573, 360.000
1.433508, 380.000
1.416612, 400.000
** ... 20 like lines cut
*EXPANSION, ZERO=20.
8.565616987e-06, 20.000
8.577349949e-06, 40.000
8.591145693e-06, 60.000
8.607353263e-06, 80.000
8.626375535e-06, 100.000
8.648675495e-06, 120.000
8.674782470e-06, 140.000
8.705297880e-06, 160.000
8.740899987e-06, 180.000
8.782346862e-06, 200.000
8.830476576e-06, 220.000
8.886203355e-06, 240.000
8.950508174e-06, 260.000
9.024422057e-06, 280.000
9.109000249e-06, 300.000
9.205285557e-06, 320.000
9.314259589e-06, 340.000
9.436781553e-06, 360.000
9.573515724e-06, 380.000
9.724850764e-06, 400.000
** ... 20 like lines cut
*ELASTIC, TYPE=ISOTROPIC, DEPENDENCIES=1
39804262731.483, 0.20030, 20.000
39596908305.068, 0.20051, 40.000
39112695933.814, 0.20095, 60.000
38075846189.102, 0.20180, 80.000
36375053675.048, 0.20322, 100.000
34505587523.601, 0.20512, 120.000
32964105760.626, 0.20702, 140.000
31753207948.668, 0.20844, 160.000
30808725187.478, 0.20928, 180.000
30116592126.519, 0.20972, 200.000
29631323260.206, 0.20992, 220.000
29278434530.818, 0.21001, 240.000
28988259907.045, 0.21005, 260.000
28709537925.105, 0.21006, 280.000
28407216669.473, 0.21005, 300.000
28056656212.428, 0.21003, 320.000
27639239078.291, 0.21000, 340.000
27140142888.778, 0.20997, 360.000
26547849128.096, 0.20992, 380.000
25854849891.400, 0.20985, 400.000
** ... 20 like lines cut
