** MATERIAL DATASET: Mix_ID=R5S, Data_Type=Validation
*MATERIAL, NAME=R5S_Validation
*DENSITY, DEPENDENCIES=1
2284.236, 20.000
2281.052, 40.000
2272.255, 60.000
2251.457, 80.000
2216.458, 100.000
2181.445, 120.000
2160.604, 140.000
2151.728, 160.000
2148.423, 180.000
2147.155, 200.000
2146.529, 220.000
2146.035, 240.000
2145.467, 260.000
2144.705, 280.000
2143.650, 300.000
2142.202, 320.000
2140.283, 340.000
2137.869, 360.000
2135.032, 380.000
2131.910, 400.000
** ... 20 like lines cut
*SPECIFIC HEAT, DEPENDENCIES=1
865.894, 20.000
885.563, 40.000
1037.273, 60.000
1577.594, 80.000
2000.000, 100.000
1943.501, 120.000
1263.377, 140.000
947.786, 160.000
896.350, 180.000
895.860, 200.000
899.143, 220.000
902.543, 240.000
905.945, 260.000
909.346, 280.000
912.748, 300.000
916.150, 320.000
919.551, 340.000
922.953, 360.000
926.354, 380.000
929.756, 400.000
** ... 20 like lines cut
*CONDUCTIVITY, TYPE=ISOTROPIC, DEPENDENCIES=1
1.742626, 20.000
1.726498, 40.000
1.702631, 60.000
1.663056, 80.000
1.605103, 100.000
1.545576, 120.000
1.502195, 140.000
1.474537, 160.000
1.455953, 180.000
1.441660, 200.000
1.429128, 220.000
1.417140, 240.000
1.405105, 260.000
1.392700, 280.000
1.379706, 300.000
1.365953, 320.000
1.351313, 340.000
1.335735, 360.000
1.319274, 380.000
1.302069, 400.000
** ... 20 like lines cut
*EXPANSION, ZERO=20.
8.475616987e-06, 20.000
8.487349949e-06, 40.000
8.501145693e-06, 60.000
8.517353263e-06, 80.000
8.536375535e-06, 100.000
8.558675495e-06, 120.000
8.584782470e-06, 140.000
8.615297880e-06, 160.000
8.650899987e-06, 180.000
8.692346862e-06, 200.000
8.740476576e-06, 220.000
8.796203355e-06, 240.000
8.860508174e-06, 260.000
8.934422057e-06, 280.000
9.019000249e-06, 300.000
9.115285557e-06, 320.000
9.224259589e-06, 340.000
9.346781553e-06, 360.000
9.483515724e-06, 380.000
9.634850764e-06, 400.000
** ... 20 like lines cut
*ELASTIC, TYPE=ISOTROPIC, DEPENDENCIES=1
35055002269.393, 0.20157, 20.000
34871297201.133, 0.20178, 40.000
34441909000.397, 0.20222, 60.000
33522005228.253, 0.20306, 80.000
32013301893.413, 0.20448, 100.000
30356825735.578, 0.20638, 120.000
28993926544.172, 0.20828, 140.000
27925615763.656, 0.20970, 160.000
27093058148.086, 0.21054, 180.000
26482490688.423, 0.21098, 200.000
26053110289.207, 0.21119, 220.000
25738699069.703, 0.21128, 240.000
25477098538.367, 0.21131, 260.000
25222033703.423, 0.21132, 280.000
24941203073.271, 0.21131, 300.000
24611471797.619, 0.21130, 320.000
24215731749.344, 0.21127, 340.000
23741995940.814, 0.21123, 360.000
23183634443.500, 0.21118, 380.000
22539240877.117, 0.21111, 400.000
** ... 20 like lines cut
