** MATERIAL DATASET: Mix_ID=R15S, Data_Type=Validation
*MATERIAL, NAME=R15S_Validation
*DENSITY, DEPENDENCIES=1
2065.520, 20.000
2062.583, 40.000
2054.467, 60.000
2035.284, 80.000
2003.001, 100.000
1970.699, 120.000
1951.457, 140.000
1943.234, 160.000
1940.124, 180.000
1938.852, 200.000
1938.106, 220.000
1937.376, 240.000
1936.412, 260.000
1935.018, 280.000
1932.989, 300.000
1930.111, 320.000
1926.229, 340.000
1921.353, 360.000
1915.750, 380.000
1909.890, 400.000
** ... 20 like lines cut
*SPECIFIC HEAT, DEPENDENCIES=1
882.815, 20.000
902.560, 40.000
1054.423, 60.000
1595.123, 80.000
2000.000, 100.000
1959.641, 120.000
1280.916, 140.000
965.206, 160.000
913.804, 180.000
913.379, 200.000
916.729, 220.000
920.195, 240.000
923.663, 260.000
927.131, 280.000
930.599, 300.000
934.068, 320.000
937.536, 340.000
941.004, 360.000
944.472, 380.000
947.940, 400.000
** ... 20 like lines cut
*CONDUCTIVITY, TYPE=ISOTROPIC, DEPENDENCIES=1
1.459317, 20.000
1.445742, 40.000
1.425578, 60.000
1.392039, 80.000
1.342862, 100.000
1.292386, 120.000
1.255685, 140.000
1.232340, 160.000
1.216659, 180.000
1.204562, 200.000
1.193883, 220.000
1.183559, 240.000
1.173040, 260.000
1.161976, 280.000
1.150089, 300.000
1.137134, 320.000
1.122946, 340.000
1.107526, 360.000
1.091110, 380.000
1.074122, 400.000
** ... 20 like lines cut
*EXPANSION, ZERO=20.
8.295616987e-06, 20.000
8.307349949e-06, 40.000
8.321145693e-06, 60.000
8.337353263e-06, 80.000
8.356375535e-06, 100.000
8.378675495e-06, 120.000
8.404782470e-06, 140.000
8.435297880e-06, 160.000
8.470899987e-06, 180.000
8.512346862e-06, 200.000
8.560476576e-06, 220.000
8.616203355e-06, 240.000
8.680508174e-06, 260.000
8.754422057e-06, 280.000
8.839000249e-06, 300.000
8.935285557e-06, 320.000
9.044259589e-06, 340.000
9.166781553e-06, 360.000
9.303515724e-06, 380.000
9.454850764e-06, 400.000
** ... 20 like lines cut
*ELASTIC, TYPE=ISOTROPIC, DEPENDENCIES=1
25117352747.467, 0.20359, 20.000
24984162009.839, 0.20380, 40.000
24672273196.842, 0.20424, 60.000
24003457754.739, 0.20508, 80.000
22906929273.114, 0.20650, 100.000
21705639561.436, 0.20840, 120.000
20721469313.315, 0.21030, 140.000
19953308363.562, 0.21172, 160.000
19355676891.944, 0.21256, 180.000
18916746044.119, 0.21300, 200.000
18606215613.032, 0.21321, 220.000
18375753223.452, 0.21330, 240.000
18179674161.034, 0.21333, 260.000
17983213760.716, 0.21334, 280.000
17761196502.259, 0.21333, 300.000
17495025811.762, 0.21331, 320.000
17171475448.654, 0.21329, 340.000
16783537199.542, 0.21325, 360.000
16331505435.500, 0.21320, 380.000
15821757839.694, 0.21313, 400.000
** ... 20 like lines cut
