** MATERIAL DATASET: Mix_ID=R15S, Data_Type=Calibration
*MATERIAL, NAME=R15S_Calibration
*DENSITY, DEPENDENCIES=1
2073.560, 20.000
2070.612, 40.000
2062.464, 60.000
2043.206, 80.000
2010.798, 100.000
1978.370, 120.000
1959.053, 140.000
1950.798, 160.000
1947.676, 180.000
1946.399, 200.000
1945.650, 220.000
1944.917, 240.000
1943.949, 260.000
1942.550, 280.000
1940.513, 300.000
1937.624, 320.000
1933.727, 340.000
1928.832, 360.000
1923.207, 380.000
1917.324, 400.000
** ... 20 like lines cut
*SPECIFIC HEAT, DEPENDENCIES=1
889.345, 20.000
909.116, 40.000
1061.005, 60.000
1601.730, 80.000
2000.000, 100.000
1964.703, 120.000
1287.600, 140.000
971.916, 160.000
920.540, 180.000
920.140, 200.000
923.516, 220.000
927.008, 240.000
930.502, 260.000
933.996, 280.000
937.489, 300.000
940.983, 320.000
944.477, 340.000
947.971, 360.000
951.464, 380.000
954.958, 400.000
** ... 20 like lines cut
*CONDUCTIVITY, TYPE=ISOTROPIC, DEPENDENCIES=1
1.458508, 20.000
1.444942, 40.000
1.424792, 60.000
1.391278, 80.000
1.342137, 100.000
1.291700, 120.000
1.255030, 140.000
1.231706, 160.000
1.216040, 180.000
1.203952, 200.000
1.193281, 220.000
1.182965, 240.000
1.172453, 260.000
1.161397, 280.000
1.149518, 300.000
1.136574, 320.000
1.122396, 340.000
1.106987, 360.000
1.090585, 380.000
1.073610, 400.000
** ... 20 like lines cut
*EXPANSION, ZERO=20.
8.295616987e-06, 20.000
8.307349949e-06, 40.000
8.321145693e-06, 60.000
8.337353263e-06, 80.000
8.356375535e-06, 100.000
8.378675495e-06, 120.000
8.404782470e-06, 140.000
8.435297880e-06, 160.000
8.470899987e-06, 180.000
8.512346862e-06, 200.000
8.560476576e-06, 220.000
8.616203355e-06, 240.000
8.680508174e-06, 260.000
8.754422057e-06, 280.000
8.839000249e-06, 300.000
8.935285557e-06, 320.000
9.044259589e-06, 340.000
9.166781553e-06, 360.000
9.303515724e-06, 380.000
9.454850764e-06, 400.000
** ... 20 like lines cut
*ELASTIC, TYPE=ISOTROPIC, DEPENDENCIES=1
24589843057.941, 0.20331, 20.000
24459449565.921, 0.20352, 40.000
24154110980.274, 0.20396, 60.000
23499341868.202, 0.20481, 80.000
22425842461.524, 0.20623, 100.000
21249781999.490, 0.20813, 120.000
20286281100.852, 0.21003, 140.000
19534252915.892, 0.21144, 160.000
18949172782.594, 0.21229, 180.000
18519460273.883, 0.21273, 200.000
18215451541.677, 0.21293, 220.000
17989829277.757, 0.21302, 240.000
17797868229.143, 0.21306, 260.000
17605533851.413, 0.21307, 280.000
17388179355.639, 0.21306, 300.000
17127598729.498, 0.21304, 320.000
16810843507.315, 0.21301, 340.000
16431052660.813, 0.21298, 360.000
15988514378.744, 0.21293, 380.000
15489472401.428, 0.21286, 400.000
** ... 20 like lines cut
