*MATERIAL, NAME=CONCRETE_R10S
*ELASTIC
3.47e+10, 0.182
*THERMAL CONDUCTIVITY
2.070
*SPECIFIC HEAT
905.0
*DENSITY
2390.0
*EXPANSION
1.22e-05
*PERMEABILITY
*CREEP
*DAMAGE INITIATION, CRITERION=MAXIMUM PRINCIPAL STRESS
*DAMAGE EVOLUTION, TYPE=ENERGY
