** MATERIAL DATASET: Mix_ID=R10S, Data_Type=Calibration
*MATERIAL, NAME=R10S_Calibration
*DENSITY, DEPENDENCIES=1
2181.530, 20.000
2178.459, 40.000
2169.972, 60.000
2149.911, 80.000
2116.150, 100.000
2082.372, 120.000
2062.259, 140.000
2053.678, 160.000
2050.457, 180.000
2049.180, 200.000
2048.487, 220.000
2047.866, 240.000
2047.085, 260.000
2045.986, 280.000
2044.410, 300.000
2042.199, 320.000
2039.232, 340.000
2035.505, 360.000
2031.192, 380.000
2026.606, 400.000
** ... 20 like lines cut
*SPECIFIC HEAT, DEPENDENCIES=1
880.383, 20.000
900.114, 40.000
1051.924, 60.000
1592.458, 80.000
2000.000, 100.000
1957.146, 120.000
1278.317, 140.000
962.690, 160.000
911.295, 180.000
910.861, 200.000
914.202, 220.000
917.658, 240.000
921.117, 260.000
924.575, 280.000
928.034, 300.000
931.493, 320.000
934.951, 340.000
938.410, 360.000
941.868, 380.000
945.327, 400.000
** ... 20 like lines cut
*CONDUCTIVITY, TYPE=ISOTROPIC, DEPENDENCIES=1
1.599407, 20.000
1.584568, 40.000
1.562568, 60.000
1.526033, 80.000
1.472498, 100.000
1.417531, 120.000
1.377521, 140.000
1.352044, 160.000
1.334928, 180.000
1.321742, 200.000
1.310141, 220.000
1.298984, 240.000
1.287698, 260.000
1.275943, 280.000
1.263468, 300.000
1.250059, 320.000
1.235566, 340.000
1.219968, 360.000
1.203418, 380.000
1.186214, 400.000
** ... 20 like lines cut
*EXPANSION, ZERO=20.
8.385616987e-06, 20.000
8.397349949e-06, 40.000
8.411145693e-06, 60.000
8.427353263e-06, 80.000
8.446375535e-06, 100.000
8.468675495e-06, 120.000
8.494782470e-06, 140.000
8.525297880e-06, 160.000
8.560899987e-06, 180.000
8.602346862e-06, 200.000
8.650476576e-06, 220.000
8.706203355e-06, 240.000
8.770508174e-06, 260.000
8.844422057e-06, 280.000
8.929000249e-06, 300.000
9.025285557e-06, 320.000
9.134259589e-06, 340.000
9.256781553e-06, 360.000
9.393515724e-06, 380.000
9.544850764e-06, 400.000
** ... 20 like lines cut
*ELASTIC, TYPE=ISOTROPIC, DEPENDENCIES=1
29343500717.690, 0.20231, 20.000
29188813243.816, 0.20252, 40.000
28826916105.655, 0.20296, 60.000
28051229544.148, 0.20381, 80.000
26779268656.625, 0.20523, 100.000
25384263998.235, 0.20713, 120.000
24238958131.472, 0.20902, 140.000
23343126592.431, 0.21044, 160.000
22645577781.867, 0.21129, 180.000
22133641018.565, 0.21172, 200.000
21772539004.620, 0.21193, 220.000
21506324278.983, 0.21202, 240.000
21282294481.910, 0.21206, 260.000
21060772746.446, 0.21206, 280.000
20813530001.666, 0.21206, 300.000
20520013711.633, 0.21204, 320.000
20165327536.601, 0.21201, 340.000
19740350736.442, 0.21197, 360.000
19242478706.257, 0.21192, 380.000
18674862727.592, 0.21186, 400.000
** ... 20 like lines cut
