** MATERIAL DATASET: Mix_ID=C, Data_Type=Validation
*MATERIAL, NAME=C_Validation
*DENSITY, DEPENDENCIES=1
2393.952, 20.000
2390.650, 40.000
2381.523, 60.000
2359.945, 80.000
2323.633, 100.000
2287.310, 120.000
2265.697, 140.000
2256.509, 160.000
2253.116, 180.000
2251.860, 200.000
2251.308, 220.000
2250.955, 240.000
2250.620, 260.000
2250.230, 280.000
2249.748, 300.000
2249.139, 320.000
2248.371, 340.000
2247.403, 360.000
2246.189, 380.000
2244.678, 400.000
** ... 20 like lines cut
*SPECIFIC HEAT, DEPENDENCIES=1
857.438, 20.000
877.069, 40.000
1028.703, 60.000
1568.834, 80.000
2000.000, 100.000
1934.802, 120.000
1254.611, 140.000
939.080, 160.000
887.627, 180.000
887.105, 200.000
890.355, 220.000
893.722, 240.000
897.090, 260.000
900.459, 280.000
903.827, 300.000
907.195, 320.000
910.563, 340.000
913.932, 360.000
917.300, 380.000
920.668, 400.000
** ... 20 like lines cut
*CONDUCTIVITY, TYPE=ISOTROPIC, DEPENDENCIES=1
1.884740, 20.000
1.867342, 40.000
1.841642, 60.000
1.799097, 80.000
1.736834, 100.000
1.672857, 120.000
1.626180, 140.000
1.596384, 160.000
1.576361, 180.000
1.560985, 200.000
1.547550, 220.000
1.534768, 240.000
1.522037, 260.000
1.509058, 280.000
1.495656, 300.000
1.481711, 320.000
1.467128, 340.000
1.451822, 360.000
1.435729, 380.000
1.418802, 400.000
** ... 20 like lines cut
*EXPANSION, ZERO=20.
8.565616987e-06, 20.000
8.577349949e-06, 40.000
8.591145693e-06, 60.000
8.607353263e-06, 80.000
8.626375535e-06, 100.000
8.648675495e-06, 120.000
8.674782470e-06, 140.000
8.705297880e-06, 160.000
8.740899987e-06, 180.000
8.782346862e-06, 200.000
8.830476576e-06, 220.000
8.886203355e-06, 240.000
8.950508174e-06, 260.000
9.024422057e-06, 280.000
9.109000249e-06, 300.000
9.205285557e-06, 320.000
9.314259589e-06, 340.000
9.436781553e-06, 360.000
9.573515724e-06, 380.000
9.724850764e-06, 400.000
** ... 20 like lines cut
*ELASTIC, TYPE=ISOTROPIC, DEPENDENCIES=1
40488702230.463, 0.20056, 20.000
40277782317.590, 0.20077, 40.000
39785243851.339, 0.20121, 60.000
38730565339.779, 0.20206, 80.000
37000527476.199, 0.20347, 100.000
35098915609.991, 0.20537, 120.000
33530927866.673, 0.20727, 140.000
32299208508.607, 0.20869, 160.000
31338485242.922, 0.20953, 180.000
30634450863.537, 0.20997, 200.000
30140837735.657, 0.21018, 220.000
29781881038.454, 0.21027, 240.000
29486716824.107, 0.21030, 260.000
29203202181.266, 0.21031, 280.000
28895682472.139, 0.21030, 300.000
28539094082.227, 0.21029, 320.000
28114499405.923, 0.21026, 340.000
27606821192.213, 0.21022, 360.000
27004342862.920, 0.21017, 380.000
26299427413.794, 0.21010, 400.000
** ... 20 like lines cut
