** Generated temperature-dependent material data
*MATERIAL, NAME=MIX
*DENSITY, DEPENDENCIES=1
1955.046, 20.0
1954.826, 40.0
1953.655, 60.0
1946.979, 80.0
1922.638, 100.0
1895.782, 120.0
1880.880, 140.0
1866.230, 160.0
1852.362, 180.0
1843.401, 200.0
1838.981, 220.0
1836.769, 240.0
1834.897, 260.0
1832.471, 280.0
1830.164, 300.0
1828.797, 320.0
1828.057, 340.0
1827.418, 360.0
1826.551, 380.0
1825.231, 400.0
** ... 20 like lines cut
*SPECIFIC HEAT, DEPENDENCIES=1
850.918, 20.0
871.950, 40.0
1050.715, 60.0
1693.705, 80.0
2415.607, 100.0
2126.158, 120.0
1310.959, 140.0
931.499, 160.0
867.591, 180.0
864.543, 200.0
866.002, 220.0
867.600, 240.0
869.200, 260.0
870.800, 280.0
872.403, 300.0
874.026, 320.0
875.768, 340.0
878.099, 360.0
882.755, 380.0
894.683, 400.0
** ... 20 like lines cut
*CONDUCTIVITY, TYPE=ISOTROPIC, DEPENDENCIES=1
1.255456, 20.0
1.247876, 40.0
1.238328, 60.0
1.217545, 80.0
1.160677, 100.0
1.102692, 120.0
1.079095, 140.0
1.064642, 160.0
1.050838, 180.0
1.037204, 200.0
1.023621, 220.0
1.009896, 240.0
0.995954, 260.0
0.981701, 280.0
0.967156, 300.0
0.952264, 320.0
0.936721, 340.0
0.920215, 360.0
0.902515, 380.0
0.883469, 400.0
** ... 20 like lines cut
*ELASTIC, TYPE=ISOTROPIC, DEPENDENCIES=1
52879232418.240, 0.202462, 20.0
52796681438.203, 0.202568, 40.0
52688501088.817, 0.202702, 60.0
52545886427.662, 0.202876, 80.0
52356849704.397, 0.203114, 100.0
52105442329.688, 0.203457, 120.0
51771536744.888, 0.203968, 140.0
51332255898.697, 0.204676, 160.0
50766397100.186, 0.205519, 180.0
50061726243.736, 0.206422, 200.0
49220823409.234, 0.207374, 220.0
48258230801.823, 0.208376, 240.0
47187845828.062, 0.209420, 260.0
46010870242.217, 0.210509, 280.0
44714563423.910, 0.211642, 300.0
43280528690.993, 0.212830, 320.0
41694860237.926, 0.214098, 340.0
39955158072.682, 0.215466, 360.0
38073413013.167, 0.216937, 380.0
36075234282.920, 0.218500, 400.0
** ... 20 like lines cut
*EXPANSION, ZERO=20.
0.000009428, 20.0
0.000009446, 40.0
0.000009485, 60.0
0.000009644, 80.0
0.000010180, 100.0
0.000010737, 120.0
0.000010961, 140.0
0.000011111, 160.0
0.000011264, 180.0
0.000011414, 200.0
0.000011561, 220.0
0.000011710, 240.0
0.000011866, 260.0
0.000012030, 280.0
0.000012201, 300.0
0.000012379, 320.0
0.000012570, 340.0
0.000012779, 360.0
0.000013011, 380.0
0.000013267, 400.0
** ... 20 like lines cut
