** MATERIAL DATASET: Mix_ID=R5S, Data_Type=Calibration
*MATERIAL, NAME=R5S_Calibration
*DENSITY, DEPENDENCIES=1
2289.565, 20.000
2286.375, 40.000
2277.556, 60.000
2256.710, 80.000
2221.630, 100.000
2186.535, 120.000
2165.645, 140.000
2156.748, 160.000
2153.436, 180.000
2152.165, 200.000
2151.537, 220.000
2151.042, 240.000
2150.472, 260.000
2149.709, 280.000
2148.652, 300.000
2147.201, 320.000
2145.276, 340.000
2142.858, 360.000
2140.014, 380.000
2136.885, 400.000
** ... 20 like lines cut
*SPECIFIC HEAT, DEPENDENCIES=1
871.433, 20.000
891.124, 40.000
1042.856, 60.000
1583.199, 80.000
2000.000, 100.000
1948.896, 120.000
1269.046, 140.000
953.477, 160.000
902.063, 180.000
901.595, 200.000
904.900, 220.000
908.322, 240.000
911.745, 260.000
915.168, 280.000
918.592, 300.000
922.015, 320.000
925.438, 340.000
928.862, 360.000
932.285, 380.000
935.708, 400.000
** ... 20 like lines cut
*CONDUCTIVITY, TYPE=ISOTROPIC, DEPENDENCIES=1
1.740467, 20.000
1.724361, 40.000
1.700525, 60.000
1.661005, 80.000
1.603131, 100.000
1.543688, 120.000
1.500372, 140.000
1.472755, 160.000
1.454199, 180.000
1.439926, 200.000
1.427412, 220.000
1.415440, 240.000
1.403421, 260.000
1.391033, 280.000
1.378057, 300.000
1.364323, 320.000
1.349704, 340.000
1.334149, 360.000
1.317711, 380.000
1.300531, 400.000
** ... 20 like lines cut
*EXPANSION, ZERO=20.
8.475616987e-06, 20.000
8.487349949e-06, 40.000
8.501145693e-06, 60.000
8.517353263e-06, 80.000
8.536375535e-06, 100.000
8.558675495e-06, 120.000
8.584782470e-06, 140.000
8.615297880e-06, 160.000
8.650899987e-06, 180.000
8.692346862e-06, 200.000
8.740476576e-06, 220.000
8.796203355e-06, 240.000
8.860508174e-06, 260.000
8.934422057e-06, 280.000
9.019000249e-06, 300.000
9.115285557e-06, 320.000
9.224259589e-06, 340.000
9.346781553e-06, 360.000
9.483515724e-06, 380.000
9.634850764e-06, 400.000
** ... 20 like lines cut
*ELASTIC, TYPE=ISOTROPIC, DEPENDENCIES=1
34413789946.387, 0.20131, 20.000
34233445139.029, 0.20152, 40.000
33811911138.489, 0.20196, 60.000
32908833884.573, 0.20280, 80.000
31427727158.132, 0.20422, 100.000
29801550611.092, 0.20612, 120.000
28463581036.003, 0.20802, 140.000
27414811376.380, 0.20944, 160.000
26597482577.473, 0.21028, 180.000
25998083377.797, 0.21072, 200.000
25576557036.074, 0.21093, 220.000
25267896903.016, 0.21102, 240.000
25011081465.777, 0.21105, 260.000
24760682176.539, 0.21106, 280.000
24484988389.892, 0.21105, 300.000
24161288429.132, 0.21103, 320.000
23772787102.273, 0.21101, 340.000
23307716682.949, 0.21097, 360.000
22759568514.678, 0.21092, 380.000
22126961942.130, 0.21085, 400.000
** ... 20 like lines cut
