** Generated temperature-dependent material data
*MATERIAL, NAME=MIX
*DENSITY, DEPENDENCIES=1
2032.572, 20.0
2032.395, 40.0
2031.323, 60.0
2024.805, 80.0
2000.673, 100.0
1975.284, 120.0
1964.653, 140.0
1956.840, 160.0
1949.838, 180.0
1945.345, 200.0
1943.130, 220.0
1942.016, 240.0
1941.066, 260.0
1939.827, 280.0
1938.627, 300.0
1937.861, 320.0
1937.342, 340.0
1936.765, 360.0
1935.896, 380.0
1934.545, 400.0
** ... 20 like lines cut
*SPECIFIC HEAT, DEPENDENCIES=1
850.918, 20.0
871.950, 40.0
1050.715, 60.0
1693.705, 80.0
2415.607, 100.0
2126.158, 120.0
1310.959, 140.0
931.499, 160.0
867.591, 180.0
864.543, 200.0
866.002, 220.0
867.600, 240.0
869.200, 260.0
870.800, 280.0
872.403, 300.0
874.026, 320.0
875.768, 340.0
878.099, 360.0
882.755, 380.0
894.683, 400.0
** ... 20 like lines cut
*CONDUCTIVITY, TYPE=ISOTROPIC, DEPENDENCIES=1
1.379219, 20.0
1.371011, 40.0
1.360795, 60.0
1.338958, 80.0
1.279593, 100.0
1.219250, 120.0
1.195631, 140.0
1.182451, 160.0
1.170272, 180.0
1.158007, 200.0
1.145443, 220.0
1.132426, 240.0
1.118874, 260.0
1.104695, 280.0
1.089856, 300.0
1.074281, 320.0
1.057766, 340.0
1.040091, 360.0
1.021070, 380.0
1.000565, 400.0
** ... 20 like lines cut
*ELASTIC, TYPE=ISOTROPIC, DEPENDENCIES=1
57334829543.620, 0.201459, 20.0
57250904932.267, 0.201561, 40.0
57142703687.460, 0.201688, 60.0
57002783261.687, 0.201848, 80.0
56821339025.947, 0.202055, 100.0
56585660218.984, 0.202333, 120.0
56279883816.370, 0.202717, 140.0
55885648039.091, 0.203225, 160.0
55384396258.537, 0.203830, 180.0
54761296481.940, 0.204500, 200.0
54008481877.712, 0.205236, 220.0
53123743909.777, 0.206043, 240.0
52104175018.669, 0.206922, 260.0
50940414135.869, 0.207880, 280.0
49617080158.124, 0.208922, 300.0
48118658438.971, 0.210056, 320.0
46436512888.655, 0.211295, 340.0
44573998862.101, 0.212647, 360.0
42548694590.253, 0.214109, 380.0
40391554163.116, 0.215668, 400.0
** ... 20 like lines cut
*EXPANSION, ZERO=20.
0.000009340, 20.0
0.000009358, 40.0
0.000009396, 60.0
0.000009550, 80.0
0.000010075, 100.0
0.000010613, 120.0
0.000010807, 140.0
0.000010913, 160.0
0.000011016, 180.0
0.000011120, 200.0
0.000011229, 220.0
0.000011345, 240.0
0.000011472, 260.0
0.000011611, 280.0
0.000011763, 300.0
0.000011928, 320.0
0.000012110, 340.0
0.000012312, 360.0
0.000012536, 380.0
0.000012786, 400.0
** ... 20 like lines cut
