*HEADING
SOFC Multi-Physics Simulation - Heat Transfer + Thermo-Mechanical Analysis
2D Cross-section of Single SOFC Repeat Unit
Sequential Analysis: Heat Transfer -> Thermo-Mechanical
Heating Rate: HR4 (4.0 °C/min)

*PART, NAME=SOFC_PART
*NODE
       1,0.000000e+00,0.000000e+00
       2,0.000000e+00,1.754386e-05
       3,0.000000e+00,3.508772e-05
       4,0.000000e+00,5.263158e-05
       5,0.000000e+00,7.017544e-05
       6,0.000000e+00,8.771930e-05
       7,0.000000e+00,1.052632e-04
       8,0.000000e+00,1.228070e-04
       9,0.000000e+00,1.403509e-04
      10,0.000000e+00,1.578947e-04
      11,0.000000e+00,1.754386e-04
      12,0.000000e+00,1.929825e-04
      13,0.000000e+00,2.105263e-04
      14,0.000000e+00,2.280702e-04
      15,0.000000e+00,2.456140e-04
      16,0.000000e+00,2.631579e-04
      17,0.000000e+00,2.807018e-04
      18,0.000000e+00,2.982456e-04
      19,0.000000e+00,3.157895e-04
      20,0.000000e+00,3.333333e-04
** ... 4678 like lines cut

*ELEMENT, TYPE=DC2D4
       1,       1,       2,      60,      59
       2,       2,       3,      61,      60
       3,       3,       4,      62,      61
       4,       4,       5,      63,      62
       5,       5,       6,      64,      63
       6,       6,       7,      65,      64
       7,       7,       8,      66,      65
       8,       8,       9,      67,      66
       9,       9,      10,      68,      67
      10,      10,      11,      69,      68
      11,      11,      12,      70,      69
      12,      12,      13,      71,      70
      13,      13,      14,      72,      71
      14,      14,      15,      73,      72
      15,      15,      16,      74,      73
      16,      16,      17,      75,      74
      17,      17,      18,      76,      75
      18,      18,      19,      77,      76
      19,      19,      20,      78,      77
      20,      20,      21,      79,      78
** ... 4540 like lines cut

*NSET, NSET=ANODE_NODES
       1,
       2,
       3,
       4,
       5,
       6,
       7,
       8,
       9,
      10,
      11,
      12,
      13,
      14,
      15,
      16,
      17,
      18,
      19,
      20,
** ... 1843 like lines cut

*NSET, NSET=ELYTE_NODES
      24,
      25,
      26,
      27,
      28,
      29,
      82,
      83,
      84,
      85,
      86,
      87,
     140,
     141,
     142,
     143,
     144,
     145,
     198,
     199,
** ... 466 like lines cut

*NSET, NSET=CATH_NODES
      30,
      31,
      32,
      33,
      34,
      35,
      36,
      37,
      38,
      39,
      40,
      41,
      42,
      43,
      44,
      45,
      46,
      47,
      48,
      49,
** ... 1843 like lines cut

*NSET, NSET=INTCONN_NODES
      53,
      54,
      55,
      56,
      57,
      58,
     111,
     112,
     113,
     114,
     115,
     116,
     169,
     170,
     171,
     172,
     173,
     174,
     227,
     228,
** ... 466 like lines cut

*NSET, NSET=X0_NODES
       1,
       2,
       3,
       4,
       5,
       6,
       7,
       8,
       9,
      10,
      11,
      12,
      13,
      14,
      15,
      16,
      17,
      18,
      19,
      20,
** ... 38 like lines cut

*NSET, NSET=Y0_NODES
       1,
      59,
     117,
     175,
     233,
     291,
     349,
     407,
     465,
     523,
     581,
     639,
     697,
     755,
     813,
     871,
     929,
     987,
    1045,
    1103,
** ... 61 like lines cut

*NSET, NSET=YTOP_NODES
      58,
     116,
     174,
     232,
     290,
     348,
     406,
     464,
     522,
     580,
     638,
     696,
     754,
     812,
     870,
     928,
     986,
    1044,
    1102,
    1160,
** ... 61 like lines cut

*ELSET, ELSET=ANODE_ELEMS
       1,
       2,
       3,
       4,
       5,
       6,
       7,
       8,
       9,
      10,
      11,
      12,
      13,
      14,
      15,
      16,
      17,
      18,
      19,
      20,
** ... 1580 like lines cut

*ELSET, ELSET=ELYTE_ELEMS
      21,
      22,
      23,
      24,
      25,
      26,
      27,
      28,
      29,
      30,
      31,
      32,
      78,
      79,
      80,
      81,
      82,
      83,
      84,
      85,
** ... 940 like lines cut

*ELSET, ELSET=CATH_ELEMS
      33,
      34,
      35,
      36,
      37,
      38,
      39,
      40,
      41,
      42,
      43,
      44,
      45,
      46,
      47,
      48,
      49,
      50,
      51,
      52,
** ... 1580 like lines cut

*ELSET, ELSET=INTCONN_ELEMS
      53,
      54,
      55,
      56,
      57,
     110,
     111,
     112,
     113,
     114,
     167,
     168,
     169,
     170,
     171,
     224,
     225,
     226,
     227,
     228,
** ... 380 like lines cut

*MATERIAL, NAME=NI_YSZ_ANODE
*ELASTIC, DEPENDENCIES=1
   1.400e+11,   0.300, 298.0
   9.100e+10,   0.300, 1273.0
*EXPANSION, DEPENDENCIES=1
   1.250e-05, 298.0
   1.350e-05, 1273.0
*CONDUCTIVITY, DEPENDENCIES=1
   6.000, 298.0
   4.000, 1273.0
*SPECIFIC HEAT, DEPENDENCIES=1
 450.000, 298.0
 570.000, 1273.0
*PLASTIC, HARDENING=JOHNSON COOK
   1.500e+08,   2.000e+08,   0.350,   0.020,   1.000, 298.000,1720.000,   1.000
*CREEP, LAW=TIME, HARDENING=NONE
   1.000e-18,   3.500,   2.200e+05

*MATERIAL, NAME=YSZ_ELECTROLYTE
*ELASTIC, DEPENDENCIES=1
   2.100e+11,   0.280, 298.0
   1.700e+11,   0.280, 1273.0
*EXPANSION, DEPENDENCIES=1
   1.050e-05, 298.0
   1.120e-05, 1273.0
*CONDUCTIVITY, DEPENDENCIES=1
   2.600, 298.0
   2.000, 1273.0
*SPECIFIC HEAT, DEPENDENCIES=1
 400.000, 298.0
 600.000, 1273.0
*CREEP, LAW=TIME, HARDENING=NONE
   5.000e-22,   2.000,   3.800e+05

*MATERIAL, NAME=LSM_CATHODE
*ELASTIC, DEPENDENCIES=1
   1.200e+11,   0.300, 298.0
   8.400e+10,   0.300, 1273.0
*EXPANSION, DEPENDENCIES=1
   1.150e-05, 298.0
   1.240e-05, 1273.0
*CONDUCTIVITY, DEPENDENCIES=1
   2.000, 298.0
   1.800, 1273.0
*SPECIFIC HEAT, DEPENDENCIES=1
 480.000, 298.0
 610.000, 1273.0

*MATERIAL, NAME=FERRITIC_STEEL
*ELASTIC, DEPENDENCIES=1
   2.050e+11,   0.300, 298.0
   1.500e+11,   0.300, 1273.0
*EXPANSION, DEPENDENCIES=1
   1.250e-05, 298.0
   1.320e-05, 1273.0
*CONDUCTIVITY, DEPENDENCIES=1
  20.000, 298.0
  15.000, 1273.0
*SPECIFIC HEAT, DEPENDENCIES=1
 500.000, 298.0
 700.000, 1273.0

*SOLID SECTION, ELSET=ANODE_ELEMS, MATERIAL=NI_YSZ_ANODE
*SOLID SECTION, ELSET=ELYTE_ELEMS, MATERIAL=YSZ_ELECTROLYTE
*SOLID SECTION, ELSET=CATH_ELEMS, MATERIAL=LSM_CATHODE
*SOLID SECTION, ELSET=INTCONN_ELEMS, MATERIAL=FERRITIC_STEEL

*AMPLITUDE, NAME=HR4_AMPLITUDE, TIME=TOTAL TIME
       0.000,  25.000
   13125.000, 900.000
   13725.000, 900.000
   26850.000,  25.000

*STEP, NAME=HEAT_TRANSFER, INC=1000
*HEAT TRANSFER, DELTMX=200.0
*BOUNDARY
Y0_NODES, 11, 11, 25.0
*FILM
YTOP_NODES, F, 25.0, 25.0
*OUTPUT, FIELD
*NODE OUTPUT
NT, HFL
*ELEMENT OUTPUT
HFL
*END STEP

*STEP, NAME=THERMO_MECHANICAL, INC=1000, NLGEOM
*STATIC
*BOUNDARY
X0_NODES, 1, 1, 0.0
Y0_NODES, 2, 2, 0.0
*TEMPERATURE
ALL_NODES, 298.0
*OUTPUT, FIELD
*NODE OUTPUT
TEMP
*ELEMENT OUTPUT
S, Mises, LE, PEEQ, CEEQ
*OUTPUT, HISTORY
*NODE OUTPUT, NSET=INT_AE_NODES
*ELEMENT OUTPUT, ELSET=ANODE_ELEMS
S
*ELEMENT OUTPUT, ELSET=ELYTE_ELEMS
S
*END STEP
