** MATERIAL DATASET: Mix_ID=R10L, Data_Type=Validation
*MATERIAL, NAME=R10L_Validation
*DENSITY, DEPENDENCIES=1
2174.761, 20.000
2171.700, 40.000
2163.239, 60.000
2143.240, 80.000
2109.584, 100.000
2075.911, 120.000
2055.860, 140.000
2047.305, 160.000
2044.095, 180.000
2042.821, 200.000
2042.131, 220.000
2041.512, 240.000
2040.734, 260.000
2039.637, 280.000
2038.067, 300.000
2035.863, 320.000
2032.905, 340.000
2029.190, 360.000
2024.889, 380.000
2020.318, 400.000
** ... 20 like lines cut
*SPECIFIC HEAT, DEPENDENCIES=1
874.353, 20.000
894.060, 40.000
1045.847, 60.000
1586.357, 80.000
2000.000, 100.000
1951.940, 120.000
1272.145, 140.000
956.494, 160.000
905.075, 180.000
904.618, 200.000
907.934, 220.000
911.368, 240.000
914.803, 260.000
918.237, 280.000
921.672, 300.000
925.107, 320.000
928.542, 340.000
931.977, 360.000
935.411, 380.000
938.846, 400.000
** ... 20 like lines cut
*CONDUCTIVITY, TYPE=ISOTROPIC, DEPENDENCIES=1
1.440736, 20.000
1.427366, 40.000
1.407543, 60.000
1.374624, 80.000
1.326388, 100.000
1.276859, 120.000
1.240804, 140.000
1.217839, 160.000
1.202408, 180.000
1.190517, 200.000
1.180051, 220.000
1.169984, 240.000
1.159796, 260.000
1.149183, 280.000
1.137915, 300.000
1.125801, 320.000
1.112706, 340.000
1.098607, 360.000
1.083646, 380.000
1.068087, 400.000
** ... 20 like lines cut
*EXPANSION, ZERO=20.
8.345616987e-06, 20.000
8.357349949e-06, 40.000
8.371145693e-06, 60.000
8.387353263e-06, 80.000
8.406375535e-06, 100.000
8.428675495e-06, 120.000
8.454782470e-06, 140.000
8.485297880e-06, 160.000
8.520899987e-06, 180.000
8.562346862e-06, 200.000
8.610476576e-06, 220.000
8.666203355e-06, 240.000
8.730508174e-06, 260.000
8.804422057e-06, 280.000
8.889000249e-06, 300.000
8.985285557e-06, 320.000
9.094259589e-06, 340.000
9.216781553e-06, 360.000
9.353515724e-06, 380.000
9.504850764e-06, 400.000
** ... 20 like lines cut
*ELASTIC, TYPE=ISOTROPIC, DEPENDENCIES=1
28435283014.867, 0.20258, 20.000
28285383309.961, 0.20279, 40.000
27934687336.605, 0.20323, 60.000
27183009235.226, 0.20407, 80.000
25950417113.089, 0.20549, 100.000
24598589577.240, 0.20739, 120.000
23488732346.049, 0.20929, 140.000
22620627903.047, 0.21071, 160.000
21944669092.409, 0.21155, 180.000
21448577406.203, 0.21199, 200.000
21098651946.984, 0.21220, 220.000
20840676896.936, 0.21229, 240.000
20623581099.647, 0.21232, 260.000
20408915736.355, 0.21233, 280.000
20169325460.851, 0.21232, 300.000
19884893863.651, 0.21230, 320.000
19541185665.181, 0.21228, 340.000
19129362423.519, 0.21224, 360.000
18646900149.515, 0.21219, 380.000
18096852588.646, 0.21212, 400.000
** ... 20 like lines cut
