** Generated temperature-dependent material data
*MATERIAL, NAME=MIX
*DENSITY, DEPENDENCIES=1
2110.099, 20.0
2109.965, 40.0
2108.991, 60.0
2102.637, 80.0
2078.731, 100.0
2054.826, 120.0
2048.471, 140.0
2047.496, 160.0
2047.359, 180.0
2047.336, 200.0
2047.325, 220.0
2047.309, 240.0
2047.281, 260.0
2047.230, 280.0
2047.137, 300.0
2046.970, 320.0
2046.674, 340.0
2046.158, 360.0
2045.289, 380.0
2043.908, 400.0
** ... 20 like lines cut
*SPECIFIC HEAT, DEPENDENCIES=1
850.918, 20.0
871.950, 40.0
1050.715, 60.0
1693.705, 80.0
2415.607, 100.0
2126.158, 120.0
1310.959, 140.0
931.499, 160.0
867.591, 180.0
864.543, 200.0
866.002, 220.0
867.600, 240.0
869.200, 260.0
870.800, 280.0
872.403, 300.0
874.026, 320.0
875.768, 340.0
878.099, 360.0
882.755, 380.0
894.683, 400.0
** ... 20 like lines cut
*CONDUCTIVITY, TYPE=ISOTROPIC, DEPENDENCIES=1
1.504664, 20.0
1.495838, 40.0
1.484990, 60.0
1.462287, 80.0
1.401089, 100.0
1.339070, 120.0
1.315689, 140.0
1.303959, 160.0
1.293598, 180.0
1.282903, 200.0
1.271562, 220.0
1.259455, 240.0
1.246484, 260.0
1.232558, 280.0
1.217583, 300.0
1.201471, 320.0
1.184123, 340.0
1.165425, 360.0
1.145241, 380.0
1.123450, 400.0
** ... 20 like lines cut
*ELASTIC, TYPE=ISOTROPIC, DEPENDENCIES=1
59696231361.853, 0.200455, 20.0
59614660466.923, 0.200554, 40.0
59511468889.908, 0.200675, 60.0
59381097856.236, 0.200820, 80.0
59216662638.972, 0.200997, 100.0
59009697880.166, 0.201209, 120.0
58749891308.569, 0.201466, 140.0
58424831110.750, 0.201773, 160.0
58019810144.625, 0.202141, 180.0
57517754454.884, 0.202579, 200.0
56899373035.813, 0.203098, 220.0
56143655625.146, 0.203709, 240.0
55228864257.296, 0.204424, 260.0
54134152383.203, 0.205252, 280.0
52841874407.846, 0.206202, 300.0
51340489979.491, 0.207282, 320.0
49627712005.155, 0.208491, 340.0
47713235095.699, 0.209828, 360.0
45620125599.624, 0.211282, 380.0
43383929781.240, 0.212836, 400.0
** ... 20 like lines cut
*EXPANSION, ZERO=20.
0.000009268, 20.0
0.000009285, 40.0
0.000009321, 60.0
0.000009472, 80.0
0.000009987, 100.0
0.000010507, 120.0
0.000010673, 140.0
0.000010736, 160.0
0.000010789, 180.0
0.000010850, 200.0
0.000010922, 220.0
0.000011007, 240.0
0.000011106, 260.0
0.000011221, 280.0
0.000011355, 300.0
0.000011507, 320.0
0.000011680, 340.0
0.000011875, 360.0
0.000012094, 380.0
0.000012337, 400.0
** ... 20 like lines cut
