*Material, name=C
*Density
2388.02,
*Elastic, type=ISOTROPIC
35000.0, 0.1873, 20
34737.5, 0.1943, 40
34475.0, 0.2009, 60
34212.5, 0.2072, 80
33950.0, 0.2132, 100
33110.0, 0.2189, 120
32270.0, 0.2243, 140
31430.0, 0.2295, 160
30590.0, 0.2344, 180
29750.0, 0.239, 200
28525.0, 0.2435, 220
27300.0, 0.2477, 240
26075.0, 0.2517, 260
24850.0, 0.2555, 280
23625.0, 0.2591, 300
22400.0, 0.2626, 320
21175.0, 0.2659, 340
19950.0, 0.269, 360
18725.0, 0.272, 380
17500.0, 0.2748, 400
** ... 20 like lines cut
*Conductivity, type=ISO
2.2823, 20
2.2669, 40
2.2497, 60
2.2306, 80
2.2093, 100
2.1857, 120
2.1597, 140
2.1312, 160
2.1001, 180
2.0662, 200
2.0296, 220
1.9903, 240
1.9484, 260
1.904, 280
1.8572, 300
1.8084, 320
1.7579, 340
1.706, 360
1.6533, 380
1.6, 400
** ... 20 like lines cut
*Specific Heat
911.02, 20
946.67, 40
1181.72, 60
1898.57, 80
2445.0, 100
1914.57, 120
1213.72, 140
994.68, 160
975.03, 180
980.07, 200
986.01, 220
992.01, 240
999.04, 260
1009.55, 280
1028.78, 300
1065.85, 320
1132.98, 340
1240.85, 360
1389.83, 380
1561.31, 400
** ... 20 like lines cut
