*Material, name=R20S
*Density
2316.38,
*Elastic, type=ISOTROPIC
32551.8, 0.1833, 20
32274.6, 0.1903, 40
31998.0, 0.1969, 60
31721.8, 0.2032, 80
31446.2, 0.2092, 100
30636.7, 0.2149, 120
29828.8, 0.2203, 140
29022.5, 0.2255, 160
28217.7, 0.2304, 180
27414.6, 0.235, 200
26258.7, 0.2395, 220
25105.1, 0.2437, 240
23953.8, 0.2477, 260
22804.8, 0.2515, 280
21658.2, 0.2551, 300
20513.9, 0.2586, 320
19371.9, 0.2619, 340
18232.3, 0.265, 360
17095.0, 0.268, 380
15960.0, 0.2708, 400
** ... 20 like lines cut
*Conductivity, type=ISO
1.9527, 20
1.9396, 40
1.9249, 60
1.9085, 80
1.8903, 100
1.8701, 120
1.8479, 140
1.8235, 160
1.7968, 180
1.7679, 200
1.7366, 220
1.7029, 240
1.6671, 260
1.629, 280
1.589, 300
1.5473, 320
1.5041, 340
1.4597, 360
1.4145, 380
1.369, 400
** ... 20 like lines cut
*Specific Heat
971.02, 20
1006.67, 40
1241.72, 60
1958.57, 80
2505.0, 100
1974.57, 120
1273.72, 140
1054.68, 160
1035.03, 180
1040.07, 200
1046.01, 220
1052.01, 240
1059.04, 260
1069.55, 280
1088.78, 300
1125.85, 320
1192.98, 340
1300.85, 360
1449.83, 380
1621.31, 400
** ... 20 like lines cut
