*Material, name=R15S
*Density
2334.29,
*Elastic, type=ISOTROPIC
33156.9, 0.1843, 20
32883.2, 0.1913, 40
32609.8, 0.1979, 60
32336.8, 0.2042, 80
32064.2, 0.2102, 100
31246.9, 0.2159, 120
30430.9, 0.2213, 140
29616.1, 0.2265, 160
28802.5, 0.2314, 180
27990.1, 0.236, 200
26817.0, 0.2405, 220
25645.6, 0.2447, 240
24476.0, 0.2487, 260
23308.2, 0.2525, 280
22142.2, 0.2561, 300
20977.9, 0.2596, 320
19815.4, 0.2629, 340
18654.6, 0.266, 360
17495.6, 0.269, 380
16338.4, 0.2718, 400
** ... 20 like lines cut
*Conductivity, type=ISO
2.0327, 20
2.019, 40
2.0037, 60
1.9866, 80
1.9677, 100
1.9467, 120
1.9236, 140
1.8982, 160
1.8704, 180
1.8403, 200
1.8077, 220
1.7727, 240
1.7353, 260
1.6958, 280
1.6541, 300
1.6107, 320
1.5657, 340
1.5195, 360
1.4725, 380
1.425, 400
** ... 20 like lines cut
*Specific Heat
956.02, 20
991.67, 40
1226.72, 60
1943.57, 80
2490.0, 100
1959.57, 120
1258.72, 140
1039.68, 160
1020.03, 180
1025.07, 200
1031.01, 220
1037.01, 240
1044.04, 260
1054.55, 280
1073.78, 300
1110.85, 320
1177.98, 340
1285.85, 360
1434.83, 380
1606.31, 400
** ... 20 like lines cut
