*Material, name=R10L
*Density
2352.2,
*Elastic, type=ISOTROPIC
31403.0, 0.1853, 20
31151.7, 0.1923, 40
30900.7, 0.1989, 60
30649.9, 0.2052, 80
30399.4, 0.2112, 100
29632.2, 0.2169, 120
28865.8, 0.2223, 140
28100.2, 0.2275, 160
27335.3, 0.2324, 180
26571.2, 0.237, 200
25464.1, 0.2415, 220
24358.2, 0.2457, 240
23253.4, 0.2497, 260
22149.7, 0.2535, 280
21047.1, 0.2571, 300
19945.6, 0.2606, 320
18845.2, 0.2639, 340
17746.0, 0.267, 360
16647.8, 0.27, 380
15550.8, 0.2728, 400
** ... 20 like lines cut
*Conductivity, type=ISO
2.1143, 20
2.1001, 40
2.0841, 60
2.0664, 80
2.0467, 100
2.0248, 120
2.0008, 140
1.9744, 160
1.9455, 180
1.9142, 200
1.8803, 220
1.8439, 240
1.805, 260
1.7638, 280
1.7205, 300
1.6753, 320
1.6285, 340
1.5805, 360
1.5316, 380
1.4822, 400
** ... 20 like lines cut
*Specific Heat
941.02, 20
976.67, 40
1211.72, 60
1928.57, 80
2475.0, 100
1944.57, 120
1243.72, 140
1024.68, 160
1005.03, 180
1010.07, 200
1016.01, 220
1022.01, 240
1029.04, 260
1039.55, 280
1058.78, 300
1095.85, 320
1162.98, 340
1270.85, 360
1419.83, 380
1591.31, 400
** ... 20 like lines cut
