*Material, name=R5S
*Density
2370.11,
*Elastic, type=ISOTROPIC
34381.0, 0.1863, 20
34114.6, 0.1933, 40
33848.3, 0.1999, 60
33582.1, 0.2062, 80
33316.1, 0.2122, 100
32483.6, 0.2179, 120
31651.5, 0.2233, 140
30819.9, 0.2285, 160
29988.6, 0.2334, 180
29157.8, 0.238, 200
27950.1, 0.2425, 220
26743.1, 0.2467, 240
25536.6, 0.2507, 260
24330.8, 0.2545, 280
23125.6, 0.2581, 300
21920.9, 0.2616, 320
20716.9, 0.2649, 340
19513.5, 0.268, 360
18310.7, 0.271, 380
17108.4, 0.2738, 400
** ... 20 like lines cut
*Conductivity, type=ISO
2.1975, 20
2.1827, 40
2.1661, 60
2.1477, 80
2.1272, 100
2.1045, 120
2.0795, 140
2.0521, 160
2.0221, 180
1.9895, 200
1.9542, 220
1.9164, 240
1.876, 260
1.8332, 280
1.7882, 300
1.7412, 320
1.6926, 340
1.6427, 360
1.5918, 380
1.5406, 400
** ... 20 like lines cut
*Specific Heat
926.02, 20
961.67, 40
1196.72, 60
1913.57, 80
2460.0, 100
1929.57, 120
1228.72, 140
1009.68, 160
990.03, 180
995.07, 200
1001.01, 220
1007.01, 240
1014.04, 260
1024.55, 280
1043.78, 300
1080.85, 320
1147.98, 340
1255.85, 360
1404.83, 380
1576.31, 400
** ... 20 like lines cut
