** ABAQUS Material Definitions for Rubberized Concrete
** Generated for Thermo-Mechanical Fire Modeling
** Temperature Range: 20°C to 800°C
**
**
** Material: C
**
*MATERIAL, NAME=C_CONCRETE
*DENSITY
2362.5,
*ELASTIC, TYPE=ISOTROPIC
32000, 0.1800, 20
31633, 0.1806, 30
31270, 0.1812, 40
30911, 0.1817, 50
30557, 0.1823, 60
30206, 0.1829, 70
29860, 0.1835, 80
29517, 0.1840, 90
29178, 0.1846, 100
28844, 0.1852, 110
28513, 0.1858, 120
28186, 0.1863, 130
27862, 0.1869, 140
27543, 0.1875, 150
27227, 0.1881, 160
26914, 0.1887, 170
26606, 0.1892, 180
26300, 0.1898, 190
25999, 0.1904, 200
25700, 0.1910, 210
** ... 59 like lines cut
*EXPANSION, TYPE=ISOTROPIC
1.20e-05, 20
1.20e-05, 30
1.20e-05, 40
1.21e-05, 50
1.21e-05, 60
1.21e-05, 70
1.21e-05, 80
1.22e-05, 90
1.22e-05, 100
1.22e-05, 110
1.22e-05, 120
1.23e-05, 130
1.23e-05, 140
1.23e-05, 150
1.23e-05, 160
1.23e-05, 170
1.24e-05, 180
1.24e-05, 190
1.24e-05, 200
1.24e-05, 210
** ... 59 like lines cut
*CONDUCTIVITY
1.9500, 20
1.9300, 30
1.9100, 40
1.8901, 50
1.8701, 60
1.8502, 70
1.8304, 80
1.8105, 90
1.7907, 100
1.7710, 110
1.7512, 120
1.7316, 130
1.7119, 140
1.6924, 150
1.6728, 160
1.6534, 170
1.6340, 180
1.6146, 190
1.5954, 200
1.5762, 210
** ... 59 like lines cut
*SPECIFIC HEAT
880.0, 20
884.5, 30
889.1, 40
893.7, 50
898.3, 60
902.9, 70
907.6, 80
912.3, 90
917.0, 100
921.8, 110
926.6, 120
931.4, 130
936.2, 140
941.1, 150
946.0, 160
951.0, 170
955.9, 180
960.9, 190
965.9, 200
971.0, 210
** ... 59 like lines cut
*CREEP, LAW=POWER
8.40e-08, 1.258, 0.1756

**
** Material: R5S
**
*MATERIAL, NAME=R5S_CONCRETE
*DENSITY
2279.8,
*ELASTIC, TYPE=ISOTROPIC
29280, 0.1863, 20
28924, 0.1869, 30
28572, 0.1875, 40
28225, 0.1880, 50
27882, 0.1886, 60
27543, 0.1892, 70
27208, 0.1898, 80
26877, 0.1904, 90
26551, 0.1910, 100
26228, 0.1915, 110
25909, 0.1921, 120
25594, 0.1927, 130
25283, 0.1933, 140
24976, 0.1939, 150
24672, 0.1945, 160
24372, 0.1950, 170
24076, 0.1956, 180
23783, 0.1962, 190
23494, 0.1968, 200
23209, 0.1974, 210
** ... 59 like lines cut
*EXPANSION, TYPE=ISOTROPIC
1.27e-05, 20
1.27e-05, 30
1.28e-05, 40
1.28e-05, 50
1.28e-05, 60
1.28e-05, 70
1.29e-05, 80
1.29e-05, 90
1.29e-05, 100
1.29e-05, 110
1.30e-05, 120
1.30e-05, 130
1.30e-05, 140
1.30e-05, 150
1.31e-05, 160
1.31e-05, 170
1.31e-05, 180
1.31e-05, 190
1.32e-05, 200
1.32e-05, 210
** ... 59 like lines cut
*CONDUCTIVITY
1.8622, 20
1.8375, 30
1.8129, 40
1.7884, 50
1.7641, 60
1.7400, 70
1.7160, 80
1.6922, 90
1.6686, 100
1.6451, 110
1.6218, 120
1.5986, 130
1.5756, 140
1.5528, 150
1.5302, 160
1.5078, 170
1.4855, 180
1.4634, 190
1.4415, 200
1.4198, 210
** ... 59 like lines cut
*SPECIFIC HEAT
902.0, 20
906.9, 30
911.8, 40
916.7, 50
921.7, 60
926.7, 70
931.7, 80
936.7, 90
941.8, 100
946.9, 110
952.0, 120
957.2, 130
962.4, 140
967.6, 150
972.9, 160
978.2, 170
983.5, 180
988.9, 190
994.2, 200
999.6, 210
** ... 59 like lines cut
*CREEP, LAW=POWER
8.01e-08, 1.277, 0.1739

**
** Material: R10S
**
*MATERIAL, NAME=R10S_CONCRETE
*DENSITY
2279.8,
*ELASTIC, TYPE=ISOTROPIC
29280, 0.1863, 20
28904, 0.1869, 30
28533, 0.1874, 40
28167, 0.1880, 50
27805, 0.1886, 60
27448, 0.1891, 70
27095, 0.1897, 80
26748, 0.1903, 90
26404, 0.1908, 100
26065, 0.1914, 110
25730, 0.1920, 120
25400, 0.1925, 130
25074, 0.1931, 140
24752, 0.1937, 150
24434, 0.1942, 160
24120, 0.1948, 170
23811, 0.1954, 180
23505, 0.1959, 190
23203, 0.1965, 200
22905, 0.1971, 210
** ... 59 like lines cut
*EXPANSION, TYPE=ISOTROPIC
1.27e-05, 20
1.27e-05, 30
1.28e-05, 40
1.28e-05, 50
1.28e-05, 60
1.28e-05, 70
1.29e-05, 80
1.29e-05, 90
1.29e-05, 100
1.29e-05, 110
1.30e-05, 120
1.30e-05, 130
1.30e-05, 140
1.30e-05, 150
1.31e-05, 160
1.31e-05, 170
1.31e-05, 180
1.31e-05, 190
1.32e-05, 200
1.32e-05, 210
** ... 59 like lines cut
*CONDUCTIVITY
1.8622, 20
1.8356, 30
1.8092, 40
1.7829, 50
1.7569, 60
1.7311, 70
1.7055, 80
1.6801, 90
1.6549, 100
1.6300, 110
1.6052, 120
1.5807, 130
1.5564, 140
1.5323, 150
1.5084, 160
1.4847, 170
1.4613, 180
1.4381, 190
1.4151, 200
1.3924, 210
** ... 59 like lines cut
*SPECIFIC HEAT
902.0, 20
907.1, 30
912.2, 40
917.4, 50
922.6, 60
927.8, 70
933.1, 80
938.3, 90
943.6, 100
949.0, 110
954.4, 120
959.8, 130
965.2, 140
970.6, 150
976.1, 160
981.7, 170
987.2, 180
992.8, 190
998.4, 200
1004.0, 210
** ... 59 like lines cut
*CREEP, LAW=POWER
8.01e-08, 1.277, 0.1739

**
** Material: R15S
**
*MATERIAL, NAME=R15S_CONCRETE
*DENSITY
2238.5,
*ELASTIC, TYPE=ISOTROPIC
27920, 0.1894, 20
27542, 0.1900, 30
27170, 0.1906, 40
26803, 0.1911, 50
26440, 0.1917, 60
26083, 0.1923, 70
25730, 0.1928, 80
25382, 0.1934, 90
25039, 0.1939, 100
24700, 0.1945, 110
24366, 0.1951, 120
24037, 0.1956, 130
23711, 0.1962, 140
23391, 0.1968, 150
23074, 0.1973, 160
22762, 0.1979, 170
22455, 0.1984, 180
22151, 0.1990, 190
21851, 0.1996, 200
21556, 0.2001, 210
** ... 59 like lines cut
*EXPANSION, TYPE=ISOTROPIC
1.31e-05, 20
1.31e-05, 30
1.31e-05, 40
1.32e-05, 50
1.32e-05, 60
1.32e-05, 70
1.32e-05, 80
1.33e-05, 90
1.33e-05, 100
1.33e-05, 110
1.33e-05, 120
1.34e-05, 130
1.34e-05, 140
1.34e-05, 150
1.34e-05, 160
1.35e-05, 170
1.35e-05, 180
1.35e-05, 190
1.36e-05, 200
1.36e-05, 210
** ... 59 like lines cut
*CONDUCTIVITY
1.8184, 20
1.7905, 30
1.7629, 40
1.7356, 50
1.7085, 60
1.6817, 70
1.6551, 80
1.6288, 90
1.6027, 100
1.5769, 110
1.5514, 120
1.5261, 130
1.5011, 140
1.4764, 150
1.4519, 160
1.4276, 170
1.4037, 180
1.3800, 190
1.3565, 200
1.3333, 210
** ... 59 like lines cut
*SPECIFIC HEAT
913.0, 20
918.4, 30
923.8, 40
929.3, 50
934.8, 60
940.3, 70
945.9, 80
951.4, 90
957.0, 100
962.7, 110
968.3, 120
974.0, 130
979.8, 140
985.5, 150
991.3, 160
997.1, 170
1003.0, 180
1008.9, 190
1014.8, 200
1020.7, 210
** ... 59 like lines cut
*CREEP, LAW=POWER
7.80e-08, 1.287, 0.1730

**
** Material: R20S
**
*MATERIAL, NAME=R20S_CONCRETE
*DENSITY
2197.1,
*ELASTIC, TYPE=ISOTROPIC
26560, 0.1926, 20
26183, 0.1932, 30
25811, 0.1937, 40
25444, 0.1943, 50
25083, 0.1948, 60
24726, 0.1954, 70
24375, 0.1959, 80
24029, 0.1965, 90
23687, 0.1970, 100
23351, 0.1976, 110
23019, 0.1982, 120
22692, 0.1987, 130
22370, 0.1993, 140
22052, 0.1998, 150
21739, 0.2004, 160
21430, 0.2009, 170
21126, 0.2015, 180
20825, 0.2020, 190
20530, 0.2026, 200
20238, 0.2032, 210
** ... 59 like lines cut
*EXPANSION, TYPE=ISOTROPIC
1.34e-05, 20
1.35e-05, 30
1.35e-05, 40
1.35e-05, 50
1.35e-05, 60
1.36e-05, 70
1.36e-05, 80
1.36e-05, 90
1.37e-05, 100
1.37e-05, 110
1.37e-05, 120
1.37e-05, 130
1.38e-05, 140
1.38e-05, 150
1.38e-05, 160
1.39e-05, 170
1.39e-05, 180
1.39e-05, 190
1.39e-05, 200
1.40e-05, 210
** ... 59 like lines cut
*CONDUCTIVITY
1.7745, 20
1.7455, 30
1.7169, 40
1.6885, 50
1.6604, 60
1.6327, 70
1.6053, 80
1.5781, 90
1.5513, 100
1.5247, 110
1.4985, 120
1.4726, 130
1.4470, 140
1.4216, 150
1.3966, 160
1.3719, 170
1.3475, 180
1.3234, 190
1.2996, 200
1.2760, 210
** ... 59 like lines cut
*SPECIFIC HEAT
924.0, 20
929.7, 30
935.4, 40
941.2, 50
947.0, 60
952.8, 70
958.7, 80
964.5, 90
970.5, 100
976.4, 110
982.4, 120
988.4, 130
994.4, 140
1000.5, 150
1006.6, 160
1012.7, 170
1018.9, 180
1025.0, 190
1031.3, 200
1037.5, 210
** ... 59 like lines cut
*CREEP, LAW=POWER
7.59e-08, 1.296, 0.1721

**
** Material: R10L
**
*MATERIAL, NAME=R10L_CONCRETE
*DENSITY
2292.2,
*ELASTIC, TYPE=ISOTROPIC
28872, 0.1855, 20
28501, 0.1860, 30
28135, 0.1866, 40
27774, 0.1872, 50
27417, 0.1877, 60
27065, 0.1883, 70
26718, 0.1889, 80
26375, 0.1894, 90
26036, 0.1900, 100
25702, 0.1906, 110
25372, 0.1911, 120
25046, 0.1917, 130
24725, 0.1923, 140
24407, 0.1928, 150
24094, 0.1934, 160
23784, 0.1939, 170
23479, 0.1945, 180
23177, 0.1951, 190
22880, 0.1956, 200
22586, 0.1962, 210
** ... 59 like lines cut
*EXPANSION, TYPE=ISOTROPIC
1.28e-05, 20
1.28e-05, 30
1.28e-05, 40
1.29e-05, 50
1.29e-05, 60
1.29e-05, 70
1.29e-05, 80
1.30e-05, 90
1.30e-05, 100
1.30e-05, 110
1.30e-05, 120
1.31e-05, 130
1.31e-05, 140
1.31e-05, 150
1.31e-05, 160
1.32e-05, 170
1.32e-05, 180
1.32e-05, 190
1.32e-05, 200
1.33e-05, 210
** ... 59 like lines cut
*CONDUCTIVITY
1.8754, 20
1.8486, 30
1.8220, 40
1.7955, 50
1.7693, 60
1.7433, 70
1.7175, 80
1.6920, 90
1.6666, 100
1.6415, 110
1.6166, 120
1.5918, 130
1.5674, 140
1.5431, 150
1.5191, 160
1.4952, 170
1.4716, 180
1.4483, 190
1.4251, 200
1.4022, 210
** ... 59 like lines cut
*SPECIFIC HEAT
898.7, 20
903.8, 30
908.9, 40
914.0, 50
919.2, 60
924.4, 70
929.6, 80
934.9, 90
940.2, 100
945.5, 110
950.9, 120
956.2, 130
961.7, 140
967.1, 150
972.6, 160
978.1, 170
983.6, 180
989.1, 190
994.7, 200
1000.4, 210
** ... 59 like lines cut
*CREEP, LAW=POWER
7.97e-08, 1.279, 0.1737
