** MATERIAL DATASET: Mix_ID=R10L, Data_Type=Calibration
*MATERIAL, NAME=R10L_Calibration
*DENSITY, DEPENDENCIES=1
2181.530, 20.000
2178.459, 40.000
2169.972, 60.000
2149.911, 80.000
2116.150, 100.000
2082.372, 120.000
2062.259, 140.000
2053.678, 160.000
2050.457, 180.000
2049.180, 200.000
2048.487, 220.000
2047.866, 240.000
2047.085, 260.000
2045.986, 280.000
2044.410, 300.000
2042.199, 320.000
2039.232, 340.000
2035.505, 360.000
2031.192, 380.000
2026.606, 400.000
** ... 20 like lines cut
*SPECIFIC HEAT, DEPENDENCIES=1
880.383, 20.000
900.114, 40.000
1051.924, 60.000
1592.458, 80.000
2000.000, 100.000
1957.146, 120.000
1278.317, 140.000
962.690, 160.000
911.295, 180.000
910.861, 200.000
914.202, 220.000
917.658, 240.000
921.117, 260.000
924.575, 280.000
928.034, 300.000
931.493, 320.000
934.951, 340.000
938.410, 360.000
941.868, 380.000
945.327, 400.000
** ... 20 like lines cut
*CONDUCTIVITY, TYPE=ISOTROPIC, DEPENDENCIES=1
1.439458, 20.000
1.426101, 40.000
1.406298, 60.000
1.373414, 80.000
1.325228, 100.000
1.275753, 120.000
1.239739, 140.000
1.216802, 160.000
1.201389, 180.000
1.189511, 200.000
1.179057, 220.000
1.169000, 240.000
1.158822, 260.000
1.148220, 280.000
1.136964, 300.000
1.124863, 320.000
1.111782, 340.000
1.097699, 360.000
1.082754, 380.000
1.067213, 400.000
** ... 20 like lines cut
*EXPANSION, ZERO=20.
8.345616987e-06, 20.000
8.357349949e-06, 40.000
8.371145693e-06, 60.000
8.387353263e-06, 80.000
8.406375535e-06, 100.000
8.428675495e-06, 120.000
8.454782470e-06, 140.000
8.485297880e-06, 160.000
8.520899987e-06, 180.000
8.562346862e-06, 200.000
8.610476576e-06, 220.000
8.666203355e-06, 240.000
8.730508174e-06, 260.000
8.804422057e-06, 280.000
8.889000249e-06, 300.000
8.985285557e-06, 320.000
9.094259589e-06, 340.000
9.216781553e-06, 360.000
9.353515724e-06, 380.000
9.504850764e-06, 400.000
** ... 20 like lines cut
*ELASTIC, TYPE=ISOTROPIC, DEPENDENCIES=1
27876325681.806, 0.20231, 20.000
27729372581.625, 0.20252, 40.000
27385570300.372, 0.20296, 60.000
26648668066.940, 0.20381, 80.000
25440305223.794, 0.20523, 100.000
24115050798.323, 0.20713, 120.000
23027010224.898, 0.20902, 140.000
22175970262.810, 0.21044, 160.000
21513298892.774, 0.21129, 180.000
21026958967.637, 0.21172, 200.000
20683912054.389, 0.21193, 220.000
20431008065.033, 0.21202, 240.000
20218179757.814, 0.21206, 260.000
20007734109.124, 0.21206, 280.000
19772853501.583, 0.21206, 300.000
19494013026.051, 0.21204, 320.000
19157061159.771, 0.21201, 340.000
18753333199.620, 0.21197, 360.000
18280354770.945, 0.21192, 380.000
17741119591.212, 0.21186, 400.000
** ... 20 like lines cut
